/*--------------------------------*- C++ -*----------------------------------*\
| =========                 |                                                 |
| \\      /  F ield         | OpenFOAM: The Open Source CFD Toolbox           |
|  \\    /   O peration     | Version:  2.1.0                                 |
|   \\  /    A nd           | Web:      www.OpenFOAM.org                      |
|    \\/     M anipulation  |                                                 |
\*---------------------------------------------------------------------------*/
FoamFile
{
    version     2.0;
    format      ascii;
    class       dictionary;
    object      blockMeshDict;
}

// * * * * * * * * * * * * * * * * * * * * * * * * * * * * * * * * * * * * * //

scale _VARscale_;	//scale 1;

xmin _VARxmin_;
xmax _VARxmax_;
ymin _VARymin_;
ymax _VARymax_;
zmin _VARzmin_;
zmax _VARzmax_;

xcells  _VARxcells_;
ycells  _VARycells_;
zcells  _VARzcells_;

vertices
(
    ($xmin $ymin $zmin )
    ($xmax $ymin $zmin )
    ($xmax $ymax $zmin )
    ($xmin $ymax $zmin )
    ($xmin $ymin $zmax )
    ($xmax $ymin $zmax )
    ($xmax $ymax $zmax )
    ($xmin $ymax $zmax )
);

blocks
(
    hex (0 1 2 3 4 5 6 7) ($xcells $ycells $zcells) 
	simpleGrading (
			(
				(_VARsGpart1x_ _VARsGcells1x_ _VARgrading1x_ ) 
				(_VARsGpart2x_ _VARsGcells2x_ _VARgrading2x_ )  
				(_VARsGpart3x_ _VARsGcells3x_ _VARgrading3x_ ) 
			)
			(
				(_VARsGpart1y_ _VARsGcells1y_ _VARgrading1y_ ) 
				(_VARsGpart2y_ _VARsGcells2y_ _VARgrading2y_ )  
				(_VARsGpart3y_ _VARsGcells3y_ _VARgrading3y_ ) 
			)
			1
		      )
);

edges
(
);

boundary
(

    topAndBottom
    {
        type patch;
        faces
        (
            (2 3 7 6)
            (0 1 5 4)
        );
    }

    inlet
    {
        type patch;
        faces
        (
            (3 0 4 7)
        );
    }

    outlet
    {
        type patch;
        faces
        (
            (1 2 6 5)
        );
    }

    front
    {
        type wall;
        faces
        (
            (4 5 6 7)
        );
    }

    back
    {
        type wall;
        faces
        (
            (0 3 2 1)
        );
    }
);

mergePatchPairs
(
);

// ************************************************************************* //
