/*--------------------------------*- C++ -*----------------------------------*\
| =========                 |                                                 |
| \\      /  F ield         | OpenFOAM: The Open Source CFD Toolbox           |
|  \\    /   O peration     | Version:  2.1.0                                 |
|   \\  /    A nd           | Web:      www.OpenFOAM.org                      |
|    \\/     M anipulation  |                                                 |
\*---------------------------------------------------------------------------*/
FoamFile
{
    version     2.0;
    format      ascii;
    class       dictionary;
    object      blockMeshDict;
}

// * * * * * * * * * * * * * * * * * * * * * * * * * * * * * * * * * * * * * //

scale 1;	//scale 1;

xmin -100;
xmax 100;
ymin -100;
ymax 100;
zmin 0.05;
zmax 0.0721;

xcells  300;
ycells  300;
zcells  1;

vertices
(
    ($xmin $ymin $zmin )
    ($xmax $ymin $zmin )
    ($xmax $ymax $zmin )
    ($xmin $ymax $zmin )
    ($xmin $ymin $zmax )
    ($xmax $ymin $zmax )
    ($xmax $ymax $zmax )
    ($xmin $ymax $zmax )
);

blocks
(
    hex (0 1 2 3 4 5 6 7) ($xcells $ycells $zcells) 
	simpleGrading (
			(
				(99.1 0.2 0.1 ) 
				(4 0.6 1 )  
				(96.9 0.2 10 ) 
			)
			(
				(98.5 0.2 0.1 ) 
				(4 0.6 1 )  
				(97.5 0.2 10 ) 
			)
			1
		      )
);

edges
(
);

boundary
(

    topAndBottom
    {
        type patch;
        faces
        (
            (2 3 7 6)
            (0 1 5 4)
        );
    }

    inlet
    {
        type patch;
        faces
        (
            (3 0 4 7)
        );
    }

    outlet
    {
        type patch;
        faces
        (
            (1 2 6 5)
        );
    }

    front
    {
        type wall;
        faces
        (
            (4 5 6 7)
        );
    }

    back
    {
        type wall;
        faces
        (
            (0 3 2 1)
        );
    }
);

mergePatchPairs
(
);

// ************************************************************************* //
