/*--------------------------------*- C++ -*----------------------------------*\
| =========                 |                                                 |
| \\      /  F ield         | OpenFOAM: The Open Source CFD Toolbox           |
|  \\    /   O peration     | Version:  8                                     |
|   \\  /    A nd           | Web:      www.OpenFOAM.org                      |
|    \\/     M anipulation  |                                                 |
\*---------------------------------------------------------------------------*/
FoamFile
{
    version     2.0;
    format      ascii;
    class       dictionary;
    object      changeDictionaryDict;
}
// * * * * * * * * * * * * * * * * * * * * * * * * * * * * * * * * * * * * * //

boundary
{
    front 
    {
        type            symmetryPlane;
    }
    back 
    {
        type            symmetryPlane;
    }
    bladenlf26_bladenlf26
    {
        type            wall;
    }
    bladenlf26_bladenlf26FLAP
    {
        type            wall;
    }
}


// ************************************************************************* //
