/*--------------------------------*- C++ -*----------------------------------*\
| =========                 |                                                 |
| \\      /  F ield         | OpenFOAM: The Open Source CFD Toolbox           |
|  \\    /   O peration     | Version:  2012                                  |
|   \\  /    A nd           | Website:  www.openfoam.com                      |
|    \\/     M anipulation  |                                                 |
\*---------------------------------------------------------------------------*/
FoamFile
{
    version     2.0;
    format      binary;
    class       polyBoundaryMesh;
    arch        "LSB;label=32;scalar=64";
    location    "constant/polyMesh";
    object      boundary;
}
// * * * * * * * * * * * * * * * * * * * * * * * * * * * * * * * * * * * * * //

5
(
    topAndBottom
    {
        type            patch;
        nFaces          600;
        startFace       179400;
    }
    inlet
    {
        type            patch;
        nFaces          300;
        startFace       180000;
    }
    outlet
    {
        type            patch;
        nFaces          300;
        startFace       180300;
    }
    front
    {
        type            wall;
        inGroups        1(wall);
        nFaces          90000;
        startFace       180600;
    }
    back
    {
        type            wall;
        inGroups        1(wall);
        nFaces          90000;
        startFace       270600;
    }
)

// ************************************************************************* //
